Version 4.1
SHEET 1 880 680
WIRE 96 112 -176 112
WIRE 416 144 240 144
WIRE -176 160 -176 112
WIRE 64 176 16 176
WIRE 96 176 64 176
WIRE 16 192 16 176
WIRE 64 208 64 176
WIRE 96 208 64 208
WIRE -176 288 -176 240
FLAG 16 192 0
FLAG -176 288 0
FLAG 416 144 Vout
IOPIN 416 144 Out
SYMBOL SpecialFunctions\\modulate 96 112 R0
WINDOW 3 10 116 Left 2
WINDOW 123 9 143 Left 2
SYMATTR InstName A1
SYMATTR Value mark=freqh space=freql
SYMATTR Value2 vhigh=1 vlow=0
SYMBOL voltage -176 144 R0
WINDOW 123 0 0 Left 0
WINDOW 39 0 0 Left 0
SYMATTR InstName V1
SYMATTR Value 0.5
TEXT 112 304 Left 2 !.param freqh=1.5e6
TEXT 112 328 Left 2 !.param freql=0.5e6
TEXT -16 -40 Left 2 !.tran 3u
